70
Coordinates from ORCA-job START_a001_b001
  C   3.48336200000000     -5.03091900000000      3.56906200000000
  O   2.87915500000000     -5.01218900000000      2.30507400000000
  C   2.45557800000000     -3.82562300000000      1.81457600000000
  C   1.87887400000000     -3.85085200000000      0.54565300000000
  C   1.42745100000000     -2.67925300000000     -0.03104400000000
  C   2.56666500000000     -2.60977900000000      2.47631400000000
  C   2.09648200000000     -1.44673100000000      1.87133600000000
  C   1.50580500000000     -1.43348600000000      0.61136100000000
  B   0.94474800000000     -0.09086200000000     -0.10986900000000
  C   1.49158000000000      1.28148800000000      0.56308500000000
  C   1.07561800000000      1.68058600000000      1.84274900000000
  C   1.51701600000000      2.84097200000000      2.44865000000000
  C   2.41789300000000      3.67360800000000      1.78622100000000
  O   2.79719000000000      4.79292500000000      2.44441600000000
  C   3.72511100000000      5.64227500000000      1.82753000000000
  C   2.85175200000000      3.31423200000000      0.51766200000000
  C   2.38261100000000      2.14142600000000     -0.06961400000000
  C   1.19042400000000     -0.17291700000000     -1.71031900000000
  C   0.21592900000000     -0.04963200000000     -2.70337800000000
  C   0.50438700000000     -0.14732500000000     -4.05529000000000
  C   1.80823700000000     -0.37750200000000     -4.47795500000000
  O   2.00490000000000     -0.46408600000000     -5.81411400000000
  C   3.30445600000000     -0.70425500000000     -6.27821500000000
  C   2.80761400000000     -0.51207100000000     -3.51928900000000
  C   2.48552000000000     -0.41618300000000     -2.17198000000000
  C   -3.48942100000000      0.16831800000000      0.38706700000000
  N   -4.84476100000000      0.25809200000000      0.49443000000000
  C   -5.48678500000000      1.55407800000000      0.65634900000000
  C   -6.95278600000000      1.49042100000000      0.26856700000000
  O   -7.62923400000000      0.47538700000000      0.95544700000000
  C   -7.06423900000000     -0.76684200000000      0.64441000000000
  C   -5.60304000000000     -0.84934500000000      1.05183200000000
  C   -2.69057800000000      1.25186200000000     -0.02897500000000
  C   -1.33430000000000      1.10837400000000     -0.15015100000000
  N   -0.68593600000000     -0.03171800000000      0.11727700000000
  C   -1.41902800000000     -1.06772700000000      0.52234100000000
  C   -2.78377100000000     -1.01448400000000      0.67122700000000
  H   2.80911100000000     -4.68380600000000      4.35936200000000
  H   3.74854300000000     -6.06638600000000      3.77347100000000
  H   4.39567500000000     -4.42621500000000      3.60475600000000
  H   1.80640800000000     -4.79331900000000      0.01702400000000
  H   1.00880400000000     -2.73254500000000     -1.03025300000000
  H   3.02470700000000     -2.53946200000000      3.45421500000000
  H   2.22410200000000     -0.51708400000000      2.41165900000000
  H   0.37174600000000      1.06382700000000      2.39356500000000
  H   1.17197000000000      3.11638200000000      3.43767600000000
  H   3.90726300000000      6.46226300000000      2.51945900000000
  H   3.34913500000000      6.06022500000000      0.88743800000000
  H   4.67774100000000      5.14139000000000      1.62518000000000
  H   3.54524700000000      3.93230700000000     -0.03745700000000
  H   2.72919900000000      1.90734700000000     -1.06857300000000
  H   -0.82288600000000      0.11517100000000     -2.43957800000000
  H   -0.28107500000000     -0.05304800000000     -4.79495000000000
  H   3.24793500000000     -0.73744300000000     -7.36458000000000
  H   3.70530900000000     -1.65985800000000     -5.92342400000000
  H   4.00339200000000      0.08927400000000     -5.99249200000000
  H   3.83568900000000     -0.70381500000000     -3.79745800000000
  H   3.28319700000000     -0.55402300000000     -1.45008900000000
  H   -5.01338700000000      2.29572200000000      0.01702000000000
  H   -5.38569100000000      1.90074800000000      1.69278000000000
  H   -7.43248500000000      2.43780900000000      0.51746500000000
  H   -7.03520600000000      1.34683500000000     -0.81890300000000
  H   -7.15028600000000     -0.97443900000000     -0.43241200000000
  H   -7.62980900000000     -1.53251500000000      1.17683500000000
  H   -5.51320200000000     -0.87209100000000      2.14594700000000
  H   -5.21643600000000     -1.79270700000000      0.66860300000000
  H   -3.10519000000000      2.21721000000000     -0.27129600000000
  H   -0.71940500000000      1.93723900000000     -0.47096000000000
  H   -0.87673600000000     -1.97384300000000      0.75092600000000
  H   -3.27166900000000     -1.90533100000000      1.03285400000000
