69
Coordinates from ORCA-job START_a001_b004_2
  C   -2.57207200000000      5.84380700000000      2.97118400000000
  O   -1.34661100000000      5.22877700000000      2.68072500000000
  C   -1.36397500000000      4.01887400000000      2.07722800000000
  C   -2.51711900000000      3.33532600000000      1.70457300000000
  C   -2.41367400000000      2.09573900000000      1.08759600000000
  C   -0.12990200000000      3.42998800000000      1.82640100000000
  C   -0.05942200000000      2.19386300000000      1.20417300000000
  C   -1.19193000000000      1.48265100000000      0.80180200000000
  B   -1.22223400000000      0.05800900000000      0.02829700000000
  C   -1.52834000000000      0.19994200000000     -1.55803200000000
  C   -2.08286300000000      1.34629500000000     -2.11742900000000
  C   -2.36977500000000      1.46478800000000     -3.47468600000000
  C   -2.08992100000000      0.41193000000000     -4.33511200000000
  O   -2.32194100000000      0.42259500000000     -5.66625400000000
  C   -2.91720200000000      1.56096800000000     -6.22725400000000
  C   -1.51907000000000     -0.74844800000000     -3.81335700000000
  C   -1.25277800000000     -0.83898000000000     -2.46077600000000
  C   -2.18320800000000     -1.00153600000000      0.78997500000000
  C   -2.33254700000000     -0.96998100000000      2.18535600000000
  C   -3.10986700000000     -1.87965400000000      2.87638500000000
  C   -3.79625100000000     -2.87778800000000      2.18608300000000
  O   -4.53360200000000     -3.72625100000000      2.93440700000000
  C   -5.23146400000000     -4.75349400000000      2.28338000000000
  C   -3.68815500000000     -2.93086200000000      0.80205500000000
  C   -2.89522200000000     -2.00204900000000      0.13407000000000
  O   4.54101100000000     -3.08889700000000      0.42811500000000
  C   4.37481400000000     -1.90496300000000      0.26378400000000
  C   5.51161500000000     -0.96694400000000      0.09641800000000
  C   5.41320100000000      0.38358900000000      0.42702200000000
  C   6.51537800000000      1.21452700000000      0.30194200000000
  C   7.71760100000000      0.70603000000000     -0.16505500000000
  C   7.82445900000000     -0.64024900000000     -0.49061800000000
  C   6.73183400000000     -1.47543600000000     -0.34917900000000
  C   2.97239400000000     -1.37267000000000      0.21815900000000
  C   2.00253200000000     -1.94212600000000      1.03076300000000
  C   0.70078100000000     -1.49069800000000      0.95119400000000
  N   0.33198300000000     -0.53817200000000      0.09463900000000
  C   1.25064800000000     -0.00190100000000     -0.71211700000000
  C   2.57559600000000     -0.38377900000000     -0.67358000000000
  H   -2.33983900000000      6.79277800000000      3.45033800000000
  H   -3.16140300000000      6.04575400000000      2.07050400000000
  H   -3.18417200000000      5.25007600000000      3.65826900000000
  H   -3.50157200000000      3.74442500000000      1.89016900000000
  H   -3.33248000000000      1.58354000000000      0.82416300000000
  H   0.77221000000000      3.94816900000000      2.12711200000000
  H   0.93413200000000      1.78772900000000      1.04810100000000
  H   -2.30038200000000      2.19631200000000     -1.48299100000000
  H   -2.80326400000000      2.38829900000000     -3.83516900000000
  H   -2.29897100000000      2.45694400000000     -6.10714400000000
  H   -3.03194200000000      1.36198800000000     -7.29084900000000
  H   -3.90610500000000      1.76508700000000     -5.80357100000000
  H   -1.29217600000000     -1.57156400000000     -4.47956200000000
  H   -0.80595700000000     -1.76077300000000     -2.09989600000000
  H   -1.82735600000000     -0.19727000000000      2.75455500000000
  H   -3.20321100000000     -1.82329600000000      3.95385400000000
  H   -5.74413000000000     -5.32165300000000      3.05684000000000
  H   -5.97974500000000     -4.37007300000000      1.58193300000000
  H   -4.56407800000000     -5.43073500000000      1.73992700000000
  H   -4.21680000000000     -3.67639400000000      0.22271200000000
  H   -2.85692000000000     -2.06503800000000     -0.94601400000000
  H   4.48558300000000      0.78975000000000      0.80934500000000
  H   6.43486100000000      2.25893200000000      0.57110700000000
  H   8.57489800000000      1.35757300000000     -0.27067700000000
  H   8.76366800000000     -1.03809700000000     -0.85052100000000
  H   6.81349300000000     -2.52694400000000     -0.58958400000000
  H   2.25211100000000     -2.73254000000000      1.72408600000000
  H   -0.08075500000000     -1.90098000000000      1.57362600000000
  H   0.89687400000000      0.75011300000000     -1.40271800000000
  H   3.27659700000000      0.08004900000000     -1.35338100000000
