29
Coordinates from ORCA-job START_a007_b069
  Cl  3.06046300000000      0.20668100000000      0.00741900000000
  Sn  0.80155700000000      0.92100500000000     -0.03777900000000
  Cl  1.26073600000000      3.20788600000000     -0.18582700000000
  Cl  0.24993600000000     -0.13706500000000      1.98198500000000
  Cl  0.28692500000000     -0.23853100000000     -2.02537800000000
  S   -1.69727200000000      1.79166600000000     -0.09168800000000
  C   -2.57251100000000      0.36413900000000     -0.04235900000000
  N   -3.87561600000000      0.31736700000000     -0.09973300000000
  C   -4.66133300000000      1.53514300000000     -0.19349800000000
  C   -4.59087900000000     -0.94928600000000     -0.07303000000000
  S   -1.71761500000000     -3.21919000000000      0.72355300000000
  C   -0.43797200000000     -3.17839500000000     -0.32411500000000
  N   0.84746900000000     -3.26906800000000     -0.03674800000000
  C   1.85588500000000     -3.27452900000000     -1.07605900000000
  C   1.34981500000000     -3.40396300000000      1.31305500000000
  H   -2.07636100000000     -0.60095300000000      0.04966200000000
  H   -5.71630400000000      1.27760200000000     -0.21803000000000
  H   -4.40604200000000      2.08767800000000     -1.09789100000000
  H   -4.47030600000000      2.17964500000000      0.66469100000000
  H   -5.20272400000000     -1.04351800000000     -0.96990300000000
  H   -5.23908900000000     -0.99260200000000      0.80190300000000
  H   -3.88582700000000     -1.77788600000000     -0.03303300000000
  H   -0.61799000000000     -3.06838700000000     -1.39111500000000
  H   2.56263000000000     -2.46025700000000     -0.91879000000000
  H   1.39512500000000     -3.14327500000000     -2.05117200000000
  H   2.39951100000000     -4.22094300000000     -1.06712800000000
  H   1.78470500000000     -4.39551400000000      1.45200200000000
  H   0.54085900000000     -3.26504900000000      2.02277500000000
  H   2.11792000000000     -2.65167700000000      1.49008600000000
