57   
xyz, charge: 0, multiplicity: 1   
C 1.892579 0.258904 -1.385205
B 1.228694 -0.082757 0.032658
C 0.795862 1.150319 0.972912
C 0.815142 2.48225 0.55747
C 0.336589 3.507994 1.361356
C -0.177516 3.225709 2.61806
C -0.201731 1.911541 3.062764
C 0.279911 0.896615 2.248952
C 2.043216 -1.257762 0.775771
C 2.844852 -0.999829 1.888335
C 3.596657 -1.997994 2.495752
C 3.560118 -3.293125 2.005666
C 2.779051 -3.574862 0.892945
C 2.04419 -2.567964 0.286976
C 3.014174 1.093585 -1.409997
C 3.683428 1.390192 -2.586931
C 3.253316 0.84757 -3.789485
C 2.159215 -0.002262 -3.791838
C 1.496181 -0.291805 -2.605726
O -0.215371 -0.8683 -0.284104
C -1.390626 -0.49406 -0.297775
C -2.430181 -1.49705 -0.062499
C -3.764829 -1.248123 -0.389843
C -4.725991 -2.217971 -0.163767
C -4.363056 -3.434641 0.395208
C -3.036615 -3.688953 0.724026
C -2.069548 -2.730813 0.49186
C -1.766631 0.914224 -0.550467
C -1.355756 1.554043 -1.71266
C -1.750281 2.868916 -1.905316
N -2.466614 3.556763 -1.029855
C -2.833255 2.943638 0.085219
C -2.53718 1.619194 0.364705
H 1.197623 2.727716 -0.425648
H 0.356094 4.528692 1.000764
H -0.55193 4.02342 3.247088
H -0.590315 1.67841 4.046611
H 0.256918 -0.12273 2.619869
H 2.886557 0.003814 2.29476
H 4.209516 -1.761519 3.356695
H 4.139754 -4.075082 2.479523
H 2.75305 -4.579989 0.490164
H 1.467436 -2.812712 -0.598412
H 3.379706 1.517792 -0.481378
H 4.54598 2.04455 -2.565422
H 3.771877 1.076257 -4.711531
H 1.822738 -0.448876 -4.719436
H 0.657428 -0.978962 -2.648648
H -4.04999 -0.3058 -0.837467
H -5.757232 -2.025694 -0.425765
H -5.116552 -4.189881 0.575945
H -2.758972 -4.637091 1.163648
H -1.036874 -2.92524 0.751721
H -0.737985 1.057182 -2.447481
H -1.459695 3.391885 -2.809081
H -3.399396 3.532873 0.796979
H -2.858981 1.170449 1.29407
