57
Coordinates from ORCA-job START_a003_b004
  C   1.89257900000000      0.25890400000000     -1.38520500000000
  B   1.22869400000000     -0.08275700000000      0.03265800000000
  C   0.79586200000000      1.15031900000000      0.97291200000000
  C   0.81514200000000      2.48225000000000      0.55747000000000
  C   0.33658900000000      3.50799400000000      1.36135600000000
  C   -0.17751600000000      3.22570900000000      2.61806000000000
  C   -0.20173100000000      1.91154100000000      3.06276400000000
  C   0.27991100000000      0.89661500000000      2.24895200000000
  C   2.04321600000000     -1.25776200000000      0.77577100000000
  C   2.84485200000000     -0.99982900000000      1.88833500000000
  C   3.59665700000000     -1.99799400000000      2.49575200000000
  C   3.56011800000000     -3.29312500000000      2.00566600000000
  C   2.77905100000000     -3.57486200000000      0.89294500000000
  C   2.04419000000000     -2.56796400000000      0.28697600000000
  C   3.01417400000000      1.09358500000000     -1.40999700000000
  C   3.68342800000000      1.39019200000000     -2.58693100000000
  C   3.25331600000000      0.84757000000000     -3.78948500000000
  C   2.15921500000000     -0.00226200000000     -3.79183800000000
  C   1.49618100000000     -0.29180500000000     -2.60572600000000
  O   -0.21537100000000     -0.86830000000000     -0.28410400000000
  C   -1.39062600000000     -0.49406000000000     -0.29777500000000
  C   -2.43018100000000     -1.49705000000000     -0.06249900000000
  C   -3.76482900000000     -1.24812300000000     -0.38984300000000
  C   -4.72599100000000     -2.21797100000000     -0.16376700000000
  C   -4.36305600000000     -3.43464100000000      0.39520800000000
  C   -3.03661500000000     -3.68895300000000      0.72402600000000
  C   -2.06954800000000     -2.73081300000000      0.49186000000000
  C   -1.76663100000000      0.91422400000000     -0.55046700000000
  C   -1.35575600000000      1.55404300000000     -1.71266000000000
  C   -1.75028100000000      2.86891600000000     -1.90531600000000
  N   -2.46661400000000      3.55676300000000     -1.02985500000000
  C   -2.83325500000000      2.94363800000000      0.08521900000000
  C   -2.53718000000000      1.61919400000000      0.36470500000000
  H   1.19762300000000      2.72771600000000     -0.42564800000000
  H   0.35609400000000      4.52869200000000      1.00076400000000
  H   -0.55193000000000      4.02342000000000      3.24708800000000
  H   -0.59031500000000      1.67841000000000      4.04661100000000
  H   0.25691800000000     -0.12273000000000      2.61986900000000
  H   2.88655700000000      0.00381400000000      2.29476000000000
  H   4.20951600000000     -1.76151900000000      3.35669500000000
  H   4.13975400000000     -4.07508200000000      2.47952300000000
  H   2.75305000000000     -4.57998900000000      0.49016400000000
  H   1.46743600000000     -2.81271200000000     -0.59841200000000
  H   3.37970600000000      1.51779200000000     -0.48137800000000
  H   4.54598000000000      2.04455000000000     -2.56542200000000
  H   3.77187700000000      1.07625700000000     -4.71153100000000
  H   1.82273800000000     -0.44887600000000     -4.71943600000000
  H   0.65742800000000     -0.97896200000000     -2.64864800000000
  H   -4.04999000000000     -0.30580000000000     -0.83746700000000
  H   -5.75723200000000     -2.02569400000000     -0.42576500000000
  H   -5.11655200000000     -4.18988100000000      0.57594500000000
  H   -2.75897200000000     -4.63709100000000      1.16364800000000
  H   -1.03687400000000     -2.92524000000000      0.75172100000000
  H   -0.73798500000000      1.05718200000000     -2.44748100000000
  H   -1.45969500000000      3.39188500000000     -2.80908100000000
  H   -3.39939600000000      3.53287300000000      0.79697900000000
  H   -2.85898100000000      1.17044900000000      1.29407000000000
